           9
  Built with Packmol                                             
  S           -3.066667       -0.187333        0.000000
  C           -2.048667       -0.749333        0.000000
  C           -1.024667       -0.187333        0.000000
  C           -0.000667       -0.749333        0.000000
  C           -0.000667        0.374667        0.000000
  C            1.023333       -1.311333        0.000000
  C            1.023333        0.936667        0.000000
  C            2.047333        0.374667        0.000000
  C            2.047333        1.498667        0.000000
